PGE_Models/GLD Simulation Primary/GLD Simulation Primary/MC0001/MC0001_glmfile_PVcenter.glm
// Large PV at center of the feeder

//*********************************************
// Include the modules
//*********************************************

module climate;
module generators;

//*********************************************
// Climate
//*********************************************

object climate {
    tmyfile "CA-San_francisco.tmy2";
}

//object csv_reader {
//    name my_csv_reader;
//    filename climate_csv.csv;
//}

//object climate {
//    tmyfile climate_csv.csv;
//    reader my_csv_reader;
//}


//*********************************************
// Transformer config Objects
//*********************************************

object transformer_configuration {
	name Xfrm_config_PV_78385-P_A;
	connect_type SINGLE_PHASE_CENTER_TAPPED;
	install_type POLETOP;
	power_rating 500000;
	primary_voltage 7200;
	secondary_voltage 120;
	resistance 0.09;
	reactance 1.81;
}

object transformer_configuration {
	name Xfrm_config_PV_78385-P_B;
	connect_type SINGLE_PHASE_CENTER_TAPPED;
	install_type POLETOP;
	power_rating 500000;
	primary_voltage 7200;
	secondary_voltage 120;
	resistance 0.09;
	reactance 1.81;
}

object transformer_configuration {
	name Xfrm_config_PV_78385-P_C;
	connect_type SINGLE_PHASE_CENTER_TAPPED;
	install_type POLETOP;
	power_rating 500000;
	primary_voltage 7200;
	secondary_voltage 120;
	resistance 0.09;
	reactance 1.81;
}

//*********************************************
// Transformer Objects
//*********************************************

object transformer {
	name Xfrm_78385-P_A;
	phases AS;
	from N_1200057217;
	to N_78385-P_sec_A;
	configuration Xfrm_config_PV_78385-P_A;
}

object transformer {
	name Xfrm_78385-P_B;
	phases BS;
	from N_1200057217;
	to N_78385-P_sec_B;
	configuration Xfrm_config_PV_78385-P_B;
}

object transformer {
	name Xfrm_78385-P_C;
	phases CS;
	from N_1200057217;
	to N_78385-P_sec_C;
	configuration Xfrm_config_PV_78385-P_C;
}

//*********************************************
// Triplex meter Objects
//*********************************************

object triplex_meter {
	name N_78385-P_sec_A;
	phases AS;
	nominal_voltage 120;
}

object triplex_meter {
	name N_78385-P_sec_B;
	phases BS;
	nominal_voltage 120;
}

object triplex_meter {
	name N_78385-P_sec_C;
	phases CS;
	nominal_voltage 120;
}


//*********************************************
// Inverter Objects
//*********************************************

object inverter {
	name inverter_78385-P_A;
	parent N_78385-P_sec_A;
	phases AS;
	generator_mode CONSTANT_PF;
	generator_status ONLINE;
	inverter_type PWM;
	power_factor 1.000000;
	rated_power 500000.0;
	inverter_efficiency 0.9;
}

object inverter {
	name inverter_78385-P_B;
	parent N_78385-P_sec_B;
	phases BS;
	generator_mode CONSTANT_PF;
	generator_status ONLINE;
	inverter_type PWM;
	power_factor 1.000000;
	rated_power 500000.0;
	inverter_efficiency 0.9;
}

object inverter {
	name inverter_78385-P_C;
	parent N_78385-P_sec_C;
	phases CS;
	generator_mode CONSTANT_PF;
	generator_status ONLINE;
	inverter_type PWM;
	power_factor 1.000000;
	rated_power 500000.0;
	inverter_efficiency 0.9;
}



//*********************************************
// Solar Objects
//*********************************************

object solar {
	name solar_78385-P_A;
	parent inverter_78385-P_A;
	generator_mode SUPPLY_DRIVEN;
	generator_status ONLINE;
	panel_type SINGLE_CRYSTAL_SILICON;
	efficiency 0.2;
	area 300000;
}

object solar {
	name solar_78385-P_B;
	parent inverter_78385-P_B;
	generator_mode SUPPLY_DRIVEN;
	generator_status ONLINE;
	panel_type SINGLE_CRYSTAL_SILICON;
	efficiency 0.2;
	area 300000;
}

object solar {
	name solar_78385-P_C;
	parent inverter_78385-P_C;
	generator_mode SUPPLY_DRIVEN;
	generator_status ONLINE;
	panel_type SINGLE_CRYSTAL_SILICON;
	efficiency 0.2;
	area 300000;
}

